Version 4
SHEET 1 880 680
WIRE 240 48 16 48
WIRE 448 48 304 48
WIRE 16 80 16 48
WIRE 448 112 448 48
WIRE 512 112 448 112
WIRE 288 160 144 160
WIRE 448 160 448 112
WIRE 448 160 352 160
WIRE 144 208 144 160
WIRE 448 224 448 160
FLAG 144 288 0
FLAG 16 160 0
FLAG 448 304 0
FLAG 512 112 Vo
FLAG 16 48 V1
FLAG 144 160 V2
SYMBOL voltage 16 64 R0
WINDOW 3 -258 132 Left 2
WINDOW 123 0 0 Left 0
WINDOW 39 0 0 Left 0
SYMATTR Value PULSE(0 5 200m 1p 1p 500m 1)
SYMATTR InstName A
SYMBOL voltage 144 192 R0
WINDOW 3 -317 127 Left 2
WINDOW 123 0 0 Left 0
WINDOW 39 0 0 Left 0
SYMATTR Value PULSE(0 5 500m 1p 1p 500m 1)
SYMATTR InstName B
SYMBOL diode 240 64 R270
WINDOW 0 32 32 VTop 2
WINDOW 3 0 32 VBottom 2
SYMATTR InstName D1
SYMBOL diode 288 176 R270
WINDOW 0 32 32 VTop 2
WINDOW 3 0 32 VBottom 2
SYMATTR InstName D2
SYMBOL res 432 208 R0
SYMATTR InstName R1
SYMATTR Value 1k
TEXT 240 320 Left 2 !.tran 1.2s
