Version 4
SHEET 1 880 680
WIRE 208 -224 96 -224
WIRE 384 -224 288 -224
WIRE 96 -176 96 -224
WIRE 384 -160 384 -224
WIRE 96 -48 96 -96
WIRE 384 -48 384 -80
FLAG 96 -48 0
FLAG 384 -48 0
FLAG 96 -224 IN
FLAG 384 -224 OUT
SYMBOL voltage 96 -192 R0
WINDOW 123 0 0 Left 0
WINDOW 39 0 0 Left 0
SYMATTR InstName V1
SYMATTR Value 9
SYMBOL res 304 -240 R90
WINDOW 0 0 56 VBottom 2
WINDOW 3 32 56 VTop 2
SYMATTR InstName R1
SYMATTR Value 470
SYMBOL res 368 -176 R0
SYMATTR InstName R2
SYMATTR Value {Rval}
TEXT 104 -8 Left 2 !.step param Rval 1 750 10
TEXT 104 16 Left 2 !.param Rval=750
TEXT 224 40 Left 2 !.op
